Version 4
SHEET 1 1644 680
WIRE 416 -80 32 -80
WIRE 640 -80 416 -80
WIRE 960 -80 640 -80
WIRE 1200 -80 960 -80
WIRE 1248 -80 1200 -80
WIRE 1376 -80 1328 -80
WIRE 1504 -80 1376 -80
WIRE 1504 -64 1504 -80
WIRE 416 16 416 -80
WIRE 640 16 640 -80
WIRE 1200 16 1200 -80
WIRE 1248 16 1200 16
WIRE 1376 16 1376 -80
WIRE 1376 16 1312 16
WIRE 1504 48 1504 16
WIRE 32 96 32 -80
WIRE 960 96 960 -80
WIRE 416 112 416 96
WIRE 928 112 416 112
WIRE 1456 128 992 128
WIRE 640 144 640 96
WIRE 928 144 640 144
WIRE 416 256 416 112
WIRE 640 256 640 144
WIRE 32 464 32 176
WIRE 416 464 416 336
WIRE 416 464 32 464
WIRE 432 464 416 464
WIRE 640 464 640 336
WIRE 640 464 432 464
WIRE 960 464 960 160
WIRE 960 464 640 464
WIRE 1504 464 1504 144
WIRE 1504 464 960 464
WIRE 432 496 432 464
FLAG 432 496 0
SYMBOL voltage 32 80 R0
WINDOW 123 0 0 Left 0
WINDOW 39 0 0 Left 0
SYMATTR InstName V1
SYMATTR Value 4.2
SYMBOL res 400 0 R0
SYMATTR InstName R1
SYMATTR Value 500k
SYMBOL res 624 0 R0
SYMATTR InstName R2
SYMATTR Value 500k
SYMBOL res 400 240 R0
SYMATTR InstName R3
SYMATTR Value 89
SYMBOL res 624 240 R0
SYMATTR InstName R4
SYMATTR Value 90
SYMBOL OpAmps\\UniversalOpamp2 960 128 R0
SYMATTR InstName U1
SYMBOL nmos 1456 48 R0
SYMATTR InstName M1
SYMATTR Value Si7336ADP
SYMBOL ind 1232 -64 R270
WINDOW 0 32 56 VTop 2
WINDOW 3 5 56 VBottom 2
SYMATTR InstName L1
SYMATTR Value 4.2m
SYMBOL res 1488 -80 R0
SYMATTR InstName R5
SYMATTR Value 21
SYMBOL diode 1312 0 R90
WINDOW 0 0 32 VBottom 2
WINDOW 3 32 32 VTop 2
SYMATTR InstName D1
SYMATTR Value 1N914
TEXT -2 520 Left 2 !.tran 20m
